[
  "D:\\MyCode\\zama\\demo\\hooks-validator.toml",
  "D:\\MyCode\\zama\\demo\\profile.java",
  "D:\\MyCode\\zama\\demo\\helpers-shared.js",
  "D:\\MyCode\\zama\\demo\\customer-util-spec",
  "D:\\MyCode\\zama\\demo\\customer-util-spec\\utils-dynamic.less",
  "D:\\MyCode\\zama\\demo\\customer-util-spec\\demo-core-resolver.py",
  "D:\\MyCode\\zama\\demo\\customer-util-spec\\helpers-components.less",
  "D:\\MyCode\\zama\\demo\\customer-util-spec\\message.scss",
  "D:\\MyCode\\zama\\demo\\customer-util-spec\\account.java",
  "D:\\MyCode\\zama\\demo\\test.scss",
  "D:\\MyCode\\zama\\demo\\base-download-message.py",
  "D:\\MyCode\\zama\\demo\\advanced-adapter-manager.styl",
  "D:\\MyCode\\zama\\demo\\frontend\\web\\src\\adaptive-routes-hooks.css",
  "D:\\MyCode\\zama\\demo\\frontend\\web\\src\\order-backend-order.sol",
  "D:\\MyCode\\zama\\demo\\frontend\\web\\src\\util-components.yaml",
  "D:\\MyCode\\zama\\demo\\frontend\\web\\src\\mock.ini",
  "D:\\MyCode\\zama\\demo\\frontend\\web\\src\\handler.jsx",
  "D:\\MyCode\\zama\\demo\\frontend\\web\\src\\serializer-styles",
  "D:\\MyCode\\zama\\demo\\frontend\\web\\src\\serializer-styles\\resolver-main-adaptive.js",
  "D:\\MyCode\\zama\\demo\\frontend\\web\\src\\serializer-styles\\core.rs",
  "D:\\MyCode\\zama\\demo\\frontend\\web\\src\\serializer-styles\\api-local-module.ini",
  "D:\\MyCode\\zama\\demo\\frontend\\web\\src\\serializer-styles\\validator.ts",
  "D:\\MyCode\\zama\\demo\\frontend\\web\\src\\serializer-styles\\decorator-types.ts",
  "D:\\MyCode\\zama\\demo\\frontend\\web\\src\\serializer-styles\\analytics-util",
  "D:\\MyCode\\zama\\demo\\frontend\\web\\src\\serializer-styles\\analytics-util\\product.java",
  "D:\\MyCode\\zama\\demo\\frontend\\web\\src\\serializer-styles\\analytics-util\\api.txt",
  "D:\\MyCode\\zama\\demo\\frontend\\web\\src\\serializer-styles\\analytics-util\\shared.scss",
  "D:\\MyCode\\zama\\demo\\frontend\\web\\src\\serializer-styles\\analytics-util\\customer-provider.scss",
  "D:\\MyCode\\zama\\demo\\frontend\\web\\src\\serializer-styles\\analytics-util\\auth-adaptive-util",
  "D:\\MyCode\\zama\\demo\\frontend\\web\\src\\serializer-styles\\analytics-util\\auth-adaptive-util\\example.env",
  "D:\\MyCode\\zama\\demo\\frontend\\web\\src\\serializer-styles\\analytics-util\\auth-adaptive-util\\registry.styl",
  "D:\\MyCode\\zama\\demo\\frontend\\web\\src\\local.yaml",
  "D:\\MyCode\\zama\\demo\\frontend\\web\\src\\sms-app.css",
  "D:\\MyCode\\zama\\demo\\frontend\\web\\src\\app.css",
  "D:\\MyCode\\zama\\demo\\frontend\\web\\src\\subscriptions.json",
  "D:\\MyCode\\zama\\demo\\frontend\\web\\src\\endpoint-fixture.ts",
  "D:\\MyCode\\zama\\demo\\frontend\\web\\src\\layouts-inventory",
  "D:\\MyCode\\zama\\demo\\frontend\\web\\src\\layouts-inventory\\mock-queries.yml"
]